          24

 Na   1.4178200000000001        8.1855980000000006        9.5730079999999997     
 O    3.8219789999999998        8.4122699999999995        9.3792510000000000     
 O  -0.98633999999999999        8.4122699999999995        9.7667660000000005     
 O    2.1966380000000001        7.5073930000000004        7.2754859999999999     
 O   0.63900100000000004        7.5073930000000004        11.870531000000000     
 O    2.5339510000000001        10.261918000000000        10.617615000000001     
 O   0.30168800000000001        10.261918000000000        8.5284019999999998     
 O    2.7707320000000002        5.8871380000000002        9.4627269999999992     
 O    6.4907000000000006E-002   5.8871380000000002        9.6832899999999995     
 Si   3.6783100000000002        10.068792999999999        9.5140390000000004     
 Si -0.84267099999999995        10.068792999999999        9.6319780000000002     
 Si   1.4178200000000001        4.9323940000000004        9.5730079999999997     
 Zr   3.9997539999999998        6.8119620000000003        8.0926380000000009     
 Zr  -1.1641150000000000        6.8119620000000003        11.053378000000000     
 O    3.2065929999999998        10.626407000000000        8.0413270000000008     
 O  -0.37095400000000001        10.626407000000000        11.104690000000000     
 Na   4.0524230000000001        6.8001750000000003        11.487610000000000     
 Na  -1.2167840000000001        6.8001750000000003        7.6584070000000004     
 Si   1.7249220000000001        8.0650080000000006        5.8027749999999996     
 Si   1.1107170000000000        8.0650080000000006        13.343242000000000     
 Zr   1.4034770000000001        11.321838000000000        7.2241749999999998     
 Zr   1.4321619999999999        11.321838000000000        11.921842000000000     
 O    1.5812520000000001        9.7215299999999996        5.9375629999999999     
 O    1.2543869999999999        9.7215299999999996        13.208454000000000     
