          30

 Na   8.6853210000000001        9.9110289999999992        6.4085549999999998     
 O    8.1561640000000004        11.863132000000000        5.3861569999999999     
 O    9.0596840000000007        8.5546199999999999        8.3139660000000006     
 O    6.3895710000000001        9.7215299999999996        5.5500470000000002     
 O    10.033438000000000        12.040843000000001        7.2754859999999999     
 O    7.6514600000000002        7.3296820000000000        6.1014530000000002     
 Na   6.6200159999999997        11.333625000000000        7.6584070000000004     
 O    10.469298999999999        7.7132120000000004        5.8540859999999997     
 Si   9.5617219999999996        12.598458000000001        5.8027749999999996     
 Si   6.2459020000000001        8.0650080000000006        5.6848349999999996     
 Si   9.2546199999999992        9.4658440000000006        9.5730079999999997     
 Zr   9.2402780000000000        6.7883880000000003        7.2241749999999998     
 Zr   6.5673459999999997        11.321838000000000        4.2634350000000003     
 O    12.017147000000000        9.5791799999999991        7.0028470000000000     
 O    7.9017070000000000        10.420588000000000        9.6832899999999995     
 Si   11.822212000000000        8.6679569999999995        5.7438050000000000     
 O    11.627276000000000        9.5791799999999991        4.4847630000000001     
 O    7.6691349999999998        10.261918000000000        2.9592079999999998     
 O    10.706080999999999        12.405333000000001        4.6991980000000000     
 O    10.607532000000001        10.420588000000000        9.4627269999999992     
 Zr   11.836554000000000        11.345412000000000        8.0926380000000009     
 Na   9.1876080000000009        6.8001750000000003        3.8292030000000001     
 O    5.1015430000000004        7.8718830000000004        6.7884120000000001     
 O    5.3383240000000001        12.246662000000001        5.6335240000000004     
 Na   9.2546199999999992        12.719048000000001        9.5730079999999997     
 O    5.7741850000000001        7.5073930000000004        4.2121240000000002     
 O    9.4180519999999994        14.254981000000001        5.9375629999999999     
 O    10.219052000000000        10.804118000000001        2.2722490000000000     
 Si   8.8134940000000004        10.068792999999999        1.8556319999999999     
 Zr   11.807869999999999        11.345412000000000        3.3949720000000001     
