          21

 Na   12.324430000000000        5.2757810000000003       -2.0628259999999998     
 O    13.234842000000000        7.6294029999999999       -1.8924580000000000     
 O    14.863232000000000        5.3197419999999997       -1.9135610000000001     
 O    12.110105000000001        4.1145180000000003       -4.3367680000000002     
 O    10.718522999999999        3.2791830000000002       -1.9176650000000000     
 O    13.544447999999999        2.9813990000000001       -1.9888120000000000     
 O    13.326708000000000        5.9939730000000004       0.55621399999999999     
 O    11.043794999999999        7.7529120000000002       -3.3308890000000000     
 Si   11.754390000000001        8.3346780000000003       -1.9686399999999999     
 Si   15.024912000000000        3.6868449999999999       -1.9126580000000000     
 Si   9.3690759999999997        4.2156300000000000       -1.9183479999999999     
 O    9.4543009999999992        5.1811670000000003      -0.58933599999999997     
 Zr   12.028510000000001        2.3167800000000001       -3.3509340000000001     
 O    9.2837560000000003        5.1811749999999996       -3.2473000000000001     
 Zr   14.750731000000000        6.9646970000000001      -0.53032400000000002     
 O    10.796680000000000        7.9496089999999997      -0.69005799999999995     
 Na   14.717528000000000        6.9718489999999997       -3.8143620000000000     
 Na   12.061719000000000        2.3238500000000002       -6.6923999999999997E-002
 Si   12.024839999999999        5.0800809999999998       -5.6657330000000004     
 O    13.374368000000000        6.0165110000000004       -5.6650790000000004     
 Si   12.369094000000000        5.6088979999999999        1.8347560000000001     
